#!/system/bin/sh
# ThermalAI Magisk/KernelSU Installer

SKIPUNZIP=1

ui_print "-----------------------------------------"
ui_print "   ThermalAI v3.1.2-beta - Rust Edition"
ui_print "   Device Edition: Universal Android"
ui_print "   Linux 4.14+ / AOSP / HyperOS"
ui_print "-----------------------------------------"
ui_print ""

DEVICE=$(getprop ro.product.device)
SOC=$(getprop ro.board.platform)
if [ "$DEVICE" != "peridot" ] || [ "$SOC" != "pineapple" ]
then
    ui_print "  [!] WARNING: Peridot optimizations are optional and runtime-gated"
    ui_print "  [!] Your device: $DEVICE / $SOC"
    ui_print "  [!] Generic discovery remains enabled"
    ui_print ""
fi

ui_print "  Clearing old logs and state..."
LOG_DIR="${THERMALAI_LOG_DIR:-/data/local/tmp}"
STATE_DIR="${THERMALAI_STATE_DIR:-/data/local/tmp/thermalai_state}"
rm -f "$LOG_DIR/thermalai.log"
rm -f "$LOG_DIR/thermalai_verbose.log"
rm -f "$LOG_DIR/thermalai_startup.log"
rm -f "$LOG_DIR/thermalai_battery.log"
rm -f "$LOG_DIR/thermalai.pid"
rm -f "$LOG_DIR/thermalai.pid.lock"
rm -rf "$STATE_DIR"

ui_print "  Extracting files..."
unzip -o "$ZIPFILE" -x "META-INF/*" -d "$MODPATH" >&2

ui_print "  Setting permissions..."
set_perm_recursive "$MODPATH" root root 0755 0644
set_perm "$MODPATH/service.sh" root root 0755
set_perm "$MODPATH/customize.sh" root root 0755
set_perm "$MODPATH/sepolicy.rule" root root 0644
set_perm_recursive "$MODPATH/system/bin" root root 0755 0755
set_perm "$MODPATH/uninstall.sh" root root 0755

if [ -x "$MODPATH/customize.sh" ]
then
    ui_print "  Running customize.sh..."
    MODPATH="$MODPATH" sh "$MODPATH/customize.sh"
fi

ui_print ""
ui_print "  Device  : $(getprop ro.product.model)"
ui_print "  Android : $(getprop ro.build.version.release)"
ui_print "  ROM     : $(getprop ro.build.display.id)"
ui_print "  KSU     : $(ksud -V 2>/dev/null || echo 'N/A (Magisk?)')"
ui_print ""
ui_print "  - AI daemon          -> system/bin/thermalai-daemon"
ui_print "  - Hardware Discovery -> capability cache with boot validation"
ui_print "  - Charge Engine      -> adaptive SOC thermal tapering"
ui_print "  - mi_thermald        -> coordinated on boot"
ui_print "  - Gaming detection   -> package scan + KGSL load awareness"
ui_print "  - CLI tool           -> thermalair (in PATH after reboot)"
ui_print ""
ui_print "  Config: /data/adb/modules/thermalai_rust/config/profiles.conf"
ui_print "  Games : /data/adb/modules/thermalai_rust/config/game_list.conf"
ui_print "  Log   : /data/local/tmp/thermalai.log"
ui_print "  State : /data/local/tmp/thermalai_state"
ui_print ""
ui_print "  Reboot to activate ThermalAI"
ui_print "-----------------------------------------"
